Data/networks/opendssNetworks/network_2/Feeder_1/Loads - Copy.txt
New Load.LOAD1 Phases=1 Bus1=67.1 kV=0.23 kW=1 PF=0.95
New Load.LOAD2 Phases=1 Bus1=151.1 kV=0.23 kW=1 PF=0.95
New Load.LOAD3 Phases=1 Bus1=177.1 kV=0.23 kW=1 PF=0.95
New Load.LOAD4 Phases=1 Bus1=185.1 kV=0.23 kW=1 PF=0.95
New Load.LOAD5 Phases=1 Bus1=186.1 kV=0.23 kW=1 PF=0.95
New Load.LOAD6 Phases=1 Bus1=221.2 kV=0.23 kW=1 PF=0.95
New Load.LOAD7 Phases=1 Bus1=222.3 kV=0.23 kW=1 PF=0.95
New Load.LOAD8 Phases=1 Bus1=253.2 kV=0.23 kW=1 PF=0.95
New Load.LOAD9 Phases=1 Bus1=267.1 kV=0.23 kW=1 PF=0.95
New Load.LOAD10 Phases=1 Bus1=268.2 kV=0.23 kW=1 PF=0.95
New Load.LOAD11 Phases=1 Bus1=279.3 kV=0.23 kW=1 PF=0.95
New Load.LOAD12 Phases=1 Bus1=280.2 kV=0.23 kW=1 PF=0.95
New Load.LOAD13 Phases=1 Bus1=293.1 kV=0.23 kW=1 PF=0.95
New Load.LOAD14 Phases=1 Bus1=306.3 kV=0.23 kW=1 PF=0.95
New Load.LOAD15 Phases=1 Bus1=307.2 kV=0.23 kW=1 PF=0.95
New Load.LOAD16 Phases=1 Bus1=308.2 kV=0.23 kW=1 PF=0.95
New Load.LOAD17 Phases=1 Bus1=309.2 kV=0.23 kW=1 PF=0.95
New Load.LOAD18 Phases=1 Bus1=311.1 kV=0.23 kW=1 PF=0.95
New Load.LOAD19 Phases=1 Bus1=322.3 kV=0.23 kW=1 PF=0.95
New Load.LOAD20 Phases=1 Bus1=348.3 kV=0.23 kW=1 PF=0.95
New Load.LOAD21 Phases=1 Bus1=363.1 kV=0.23 kW=1 PF=0.95
New Load.LOAD22 Phases=1 Bus1=377.1 kV=0.23 kW=1 PF=0.95
New Load.LOAD23 Phases=1 Bus1=393.1 kV=0.23 kW=1 PF=0.95
New Load.LOAD24 Phases=1 Bus1=395.1 kV=0.23 kW=1 PF=0.95
New Load.LOAD25 Phases=1 Bus1=407.3 kV=0.23 kW=1 PF=0.95
New Load.LOAD26 Phases=1 Bus1=409.1 kV=0.23 kW=1 PF=0.95
New Load.LOAD27 Phases=1 Bus1=435.3 kV=0.23 kW=1 PF=0.95
New Load.LOAD28 Phases=1 Bus1=437.2 kV=0.23 kW=1 PF=0.95
New Load.LOAD29 Phases=1 Bus1=463.2 kV=0.23 kW=1 PF=0.95
New Load.LOAD30 Phases=1 Bus1=483.2 kV=0.23 kW=1 PF=0.95
New Load.LOAD31 Phases=1 Bus1=499.2 kV=0.23 kW=1 PF=0.95
New Load.LOAD32 Phases=1 Bus1=502.3 kV=0.23 kW=1 PF=0.95
New Load.LOAD33 Phases=1 Bus1=514.1 kV=0.23 kW=1 PF=0.95
New Load.LOAD34 Phases=1 Bus1=515.1 kV=0.23 kW=1 PF=0.95
New Load.LOAD35 Phases=1 Bus1=520.1 kV=0.23 kW=1 PF=0.95
New Load.LOAD36 Phases=1 Bus1=526.2 kV=0.23 kW=1 PF=0.95
New Load.LOAD37 Phases=1 Bus1=527.3 kV=0.23 kW=1 PF=0.95
New Load.LOAD38 Phases=1 Bus1=541.1 kV=0.23 kW=1 PF=0.95
New Load.LOAD39 Phases=1 Bus1=545.1 kV=0.23 kW=1 PF=0.95
New Load.LOAD40 Phases=1 Bus1=550.2 kV=0.23 kW=1 PF=0.95
New Load.LOAD41 Phases=1 Bus1=569.2 kV=0.23 kW=1 PF=0.95
New Load.LOAD42 Phases=1 Bus1=573.2 kV=0.23 kW=1 PF=0.95
New Load.LOAD43 Phases=1 Bus1=589.1 kV=0.23 kW=1 PF=0.95
New Load.LOAD44 Phases=1 Bus1=591.3 kV=0.23 kW=1 PF=0.95
New Load.LOAD45 Phases=1 Bus1=595.3 kV=0.23 kW=1 PF=0.95
New Load.LOAD46 Phases=1 Bus1=613.1 kV=0.23 kW=1 PF=0.95
New Load.LOAD47 Phases=1 Bus1=614.3 kV=0.23 kW=1 PF=0.95
New Load.LOAD48 Phases=1 Bus1=616.1 kV=0.23 kW=1 PF=0.95
New Load.LOAD49 Phases=1 Bus1=619.3 kV=0.23 kW=1 PF=0.95
New Load.LOAD50 Phases=1 Bus1=637.2 kV=0.23 kW=1 PF=0.95
New Load.LOAD51 Phases=1 Bus1=639.1 kV=0.23 kW=1 PF=0.95
New Load.LOAD52 Phases=1 Bus1=641.2 kV=0.23 kW=1 PF=0.95
New Load.LOAD53 Phases=1 Bus1=642.1 kV=0.23 kW=1 PF=0.95
New Load.LOAD54 Phases=1 Bus1=666.2 kV=0.23 kW=1 PF=0.95
New Load.LOAD55 Phases=1 Bus1=667.2 kV=0.23 kW=1 PF=0.95
New Load.LOAD56 Phases=1 Bus1=689.3 kV=0.23 kW=1 PF=0.95
New Load.LOAD57 Phases=1 Bus1=691.3 kV=0.23 kW=1 PF=0.95
New Load.LOAD58 Phases=1 Bus1=692.3 kV=0.23 kW=1 PF=0.95
New Load.LOAD59 Phases=1 Bus1=693.3 kV=0.23 kW=1 PF=0.95
New Load.LOAD60 Phases=1 Bus1=733.2 kV=0.23 kW=1 PF=0.95
New Load.LOAD61 Phases=1 Bus1=734.3 kV=0.23 kW=1 PF=0.95
New Load.LOAD62 Phases=1 Bus1=742.3 kV=0.23 kW=1 PF=0.95
New Load.LOAD63 Phases=1 Bus1=762.1 kV=0.23 kW=1 PF=0.95
New Load.LOAD64 Phases=1 Bus1=763.1 kV=0.23 kW=1 PF=0.95
New Load.LOAD65 Phases=1 Bus1=798.1 kV=0.23 kW=1 PF=0.95
New Load.LOAD66 Phases=1 Bus1=863.2 kV=0.23 kW=1 PF=0.95
New Load.LOAD67 Phases=1 Bus1=865.1 kV=0.23 kW=1 PF=0.95
New Load.LOAD68 Phases=1 Bus1=878.2 kV=0.23 kW=1 PF=0.95
New Load.LOAD69 Phases=1 Bus1=879.2 kV=0.23 kW=1 PF=0.95
New Load.LOAD70 Phases=1 Bus1=880.2 kV=0.23 kW=1 PF=0.95
New Load.LOAD71 Phases=1 Bus1=900.2 kV=0.23 kW=1 PF=0.95
New Load.LOAD72 Phases=1 Bus1=910.3 kV=0.23 kW=1 PF=0.95
New Load.LOAD73 Phases=1 Bus1=1024.3 kV=0.23 kW=1 PF=0.95
New Load.LOAD74 Phases=1 Bus1=1054.3 kV=0.23 kW=1 PF=0.95
New Load.LOAD75 Phases=1 Bus1=1070.2 kV=0.23 kW=1 PF=0.95
New Load.LOAD76 Phases=1 Bus1=1120.1 kV=0.23 kW=1 PF=0.95
New Load.LOAD77 Phases=1 Bus1=1154.1 kV=0.23 kW=1 PF=0.95
New Load.LOAD78 Phases=1 Bus1=1164.1 kV=0.23 kW=1 PF=0.95
New Load.LOAD79 Phases=1 Bus1=1166.2 kV=0.23 kW=1 PF=0.95
New Load.LOAD80 Phases=1 Bus1=1171.2 kV=0.23 kW=1 PF=0.95
New Load.LOAD81 Phases=1 Bus1=1190.1 kV=0.23 kW=1 PF=0.95
New Load.LOAD82 Phases=1 Bus1=1209.3 kV=0.23 kW=1 PF=0.95
New Load.LOAD83 Phases=1 Bus1=1220.1 kV=0.23 kW=1 PF=0.95
New Load.LOAD84 Phases=1 Bus1=1224.1 kV=0.23 kW=1 PF=0.95
New Load.LOAD85 Phases=1 Bus1=1226.3 kV=0.23 kW=1 PF=0.95
New Load.LOAD86 Phases=1 Bus1=1228.2 kV=0.23 kW=1 PF=0.95
New Load.LOAD87 Phases=1 Bus1=1269.1 kV=0.23 kW=1 PF=0.95
New Load.LOAD88 Phases=1 Bus1=1303.3 kV=0.23 kW=1 PF=0.95
New Load.LOAD89 Phases=1 Bus1=1318.2 kV=0.23 kW=1 PF=0.95
New Load.LOAD90 Phases=1 Bus1=1319.1 kV=0.23 kW=1 PF=0.95
New Load.LOAD91 Phases=1 Bus1=1321.3 kV=0.23 kW=1 PF=0.95
New Load.LOAD92 Phases=1 Bus1=1323.2 kV=0.23 kW=1 PF=0.95
New Load.LOAD93 Phases=1 Bus1=1325.2 kV=0.23 kW=1 PF=0.95
New Load.LOAD94 Phases=1 Bus1=1329.3 kV=0.23 kW=1 PF=0.95
New Load.LOAD95 Phases=1 Bus1=1330.2 kV=0.23 kW=1 PF=0.95
New Load.LOAD96 Phases=1 Bus1=1349.3 kV=0.23 kW=1 PF=0.95
New Load.LOAD97 Phases=1 Bus1=1394.2 kV=0.23 kW=1 PF=0.95
New Load.LOAD98 Phases=1 Bus1=1399.1 kV=0.23 kW=1 PF=0.95
New Load.LOAD99 Phases=1 Bus1=1414.2 kV=0.23 kW=1 PF=0.95
New Load.LOAD100 Phases=1 Bus1=1416.2 kV=0.23 kW=1 PF=0.95
New Load.LOAD101 Phases=1 Bus1=1457.2 kV=0.23 kW=1 PF=0.95
New Load.LOAD102 Phases=1 Bus1=1487.1 kV=0.23 kW=1 PF=0.95
New Load.LOAD103 Phases=1 Bus1=1488.3 kV=0.23 kW=1 PF=0.95
New Load.LOAD104 Phases=1 Bus1=1504.1 kV=0.23 kW=1 PF=0.95
New Load.LOAD105 Phases=1 Bus1=1515.2 kV=0.23 kW=1 PF=0.95
New Load.LOAD106 Phases=1 Bus1=1517.1 kV=0.23 kW=1 PF=0.95
New Load.LOAD107 Phases=1 Bus1=1520.2 kV=0.23 kW=1 PF=0.95
New Load.LOAD108 Phases=1 Bus1=1530.3 kV=0.23 kW=1 PF=0.95
New Load.LOAD109 Phases=1 Bus1=1545.3 kV=0.23 kW=1 PF=0.95
New Load.LOAD110 Phases=1 Bus1=1546.2 kV=0.23 kW=1 PF=0.95
New Load.LOAD111 Phases=1 Bus1=1559.3 kV=0.23 kW=1 PF=0.95
New Load.LOAD112 Phases=1 Bus1=1594.1 kV=0.23 kW=1 PF=0.95
New Load.LOAD113 Phases=1 Bus1=1596.1 kV=0.23 kW=1 PF=0.95
New Load.LOAD114 Phases=1 Bus1=1598.2 kV=0.23 kW=1 PF=0.95
New Load.LOAD115 Phases=1 Bus1=1629.1 kV=0.23 kW=1 PF=0.95
New Load.LOAD116 Phases=1 Bus1=1630.3 kV=0.23 kW=1 PF=0.95
New Load.LOAD117 Phases=1 Bus1=1655.3 kV=0.23 kW=1 PF=0.95
New Load.LOAD118 Phases=1 Bus1=1659.1 kV=0.23 kW=1 PF=0.95
New Load.LOAD119 Phases=1 Bus1=1691.1 kV=0.23 kW=1 PF=0.95
New Load.LOAD120 Phases=1 Bus1=1723.3 kV=0.23 kW=1 PF=0.95
New Load.LOAD121 Phases=1 Bus1=1740.3 kV=0.23 kW=1 PF=0.95
New Load.LOAD122 Phases=1 Bus1=1752.3 kV=0.23 kW=1 PF=0.95
New Load.LOAD123 Phases=1 Bus1=1766.3 kV=0.23 kW=1 PF=0.95
New Load.LOAD124 Phases=1 Bus1=1771.1 kV=0.23 kW=1 PF=0.95
New Load.LOAD125 Phases=1 Bus1=1777.2 kV=0.23 kW=1 PF=0.95
New Load.LOAD126 Phases=1 Bus1=1785.1 kV=0.23 kW=1 PF=0.95
New Load.LOAD127 Phases=1 Bus1=1799.3 kV=0.23 kW=1 PF=0.95
New Load.LOAD128 Phases=1 Bus1=1801.2 kV=0.23 kW=1 PF=0.95
New Load.LOAD129 Phases=1 Bus1=1805.2 kV=0.23 kW=1 PF=0.95
New Load.LOAD130 Phases=1 Bus1=1807.3 kV=0.23 kW=1 PF=0.95
New Load.LOAD131 Phases=1 Bus1=1809.1 kV=0.23 kW=1 PF=0.95
New Load.LOAD132 Phases=1 Bus1=1817.3 kV=0.23 kW=1 PF=0.95
New Load.LOAD133 Phases=1 Bus1=1822.3 kV=0.23 kW=1 PF=0.95
New Load.LOAD134 Phases=1 Bus1=1830.2 kV=0.23 kW=1 PF=0.95
New Load.LOAD135 Phases=1 Bus1=1831.3 kV=0.23 kW=1 PF=0.95
New Load.LOAD136 Phases=1 Bus1=1839.3 kV=0.23 kW=1 PF=0.95
New Load.LOAD137 Phases=1 Bus1=1848.3 kV=0.23 kW=1 PF=0.95
New Load.LOAD138 Phases=1 Bus1=1856.3 kV=0.23 kW=1 PF=0.95
New Load.LOAD139 Phases=1 Bus1=1857.2 kV=0.23 kW=1 PF=0.95
New Load.LOAD140 Phases=1 Bus1=1865.2 kV=0.23 kW=1 PF=0.95
New Load.LOAD141 Phases=1 Bus1=1867.3 kV=0.23 kW=1 PF=0.95
New Load.LOAD142 Phases=1 Bus1=1870.3 kV=0.23 kW=1 PF=0.95
New Load.LOAD143 Phases=1 Bus1=1883.1 kV=0.23 kW=1 PF=0.95
New Load.LOAD144 Phases=1 Bus1=1888.1 kV=0.23 kW=1 PF=0.95
New Load.LOAD145 Phases=1 Bus1=1906.1 kV=0.23 kW=1 PF=0.95
New Load.LOAD146 Phases=1 Bus1=1919.3 kV=0.23 kW=1 PF=0.95
New Load.LOAD147 Phases=1 Bus1=1936.2 kV=0.23 kW=1 PF=0.95
New Load.LOAD148 Phases=1 Bus1=1939.3 kV=0.23 kW=1 PF=0.95
New Load.LOAD149 Phases=1 Bus1=1952.2 kV=0.23 kW=1 PF=0.95
New Load.LOAD150 Phases=1 Bus1=1953.1 kV=0.23 kW=1 PF=0.95
New Load.LOAD151 Phases=1 Bus1=1957.2 kV=0.23 kW=1 PF=0.95
New Load.LOAD152 Phases=1 Bus1=1959.2 kV=0.23 kW=1 PF=0.95
New Load.LOAD153 Phases=1 Bus1=2005.2 kV=0.23 kW=1 PF=0.95
New Load.LOAD154 Phases=1 Bus1=2030.1 kV=0.23 kW=1 PF=0.95
New Load.LOAD155 Phases=1 Bus1=2033.2 kV=0.23 kW=1 PF=0.95
New Load.LOAD156 Phases=1 Bus1=2039.1 kV=0.23 kW=1 PF=0.95
New Load.LOAD157 Phases=1 Bus1=2040.1 kV=0.23 kW=1 PF=0.95
New Load.LOAD158 Phases=1 Bus1=2051.1 kV=0.23 kW=1 PF=0.95
New Load.LOAD159 Phases=1 Bus1=2075.2 kV=0.23 kW=1 PF=0.95
New Load.LOAD160 Phases=1 Bus1=2085.2 kV=0.23 kW=1 PF=0.95
New Load.LOAD161 Phases=1 Bus1=2096.2 kV=0.23 kW=1 PF=0.95
New Load.LOAD162 Phases=1 Bus1=2099.3 kV=0.23 kW=1 PF=0.95
New Load.LOAD163 Phases=1 Bus1=2100.3 kV=0.23 kW=1 PF=0.95
New Load.LOAD164 Phases=1 Bus1=2125.2 kV=0.23 kW=1 PF=0.95
New Load.LOAD165 Phases=1 Bus1=2164.1 kV=0.23 kW=1 PF=0.95
New Load.LOAD166 Phases=1 Bus1=2177.1 kV=0.23 kW=1 PF=0.95
New Load.LOAD167 Phases=1 Bus1=2184.1 kV=0.23 kW=1 PF=0.95
New Load.LOAD168 Phases=1 Bus1=2195.1 kV=0.23 kW=1 PF=0.95
New Load.LOAD169 Phases=1 Bus1=2199.2 kV=0.23 kW=1 PF=0.95
New Load.LOAD170 Phases=1 Bus1=2220.3 kV=0.23 kW=1 PF=0.95
New Load.LOAD171 Phases=1 Bus1=2227.3 kV=0.23 kW=1 PF=0.95
New Load.LOAD172 Phases=1 Bus1=2250.2 kV=0.23 kW=1 PF=0.95
New Load.LOAD173 Phases=1 Bus1=2252.1 kV=0.23 kW=1 PF=0.95
New Load.LOAD174 Phases=1 Bus1=2256.2 kV=0.23 kW=1 PF=0.95
New Load.LOAD175 Phases=1 Bus1=2266.1 kV=0.23 kW=1 PF=0.95
